LAMMPS (15 Sep 2022)
#echo screen

# units determine conversion factors and all other variables

units real

# variables

units       real
variable    T equal 70
variable    V equal vol
variable    dt equal 4.0
variable    Nrepeat equal 200     # correlation length
variable    Nevery equal 10      # sample interval
variable Nfreq equal 10*200

# convert from LAMMPS real units to SI

variable    kB equal 1.3806504e-23    # [J/K] Boltzmann
variable    kCal2J equal 4186.0/6.02214e23
variable    A2m equal 1.0e-10
variable    fs2s equal 1.0e-15
variable    convert equal 6.95101741241486e-21*6.95101741241486e-21/1e-15/1e-10

# setup problem

dimension    3
boundary     p p p
lattice      fcc 5.376 orient x 1 0 0 orient y 0 1 0 orient z 0 0 1
Lattice spacing in x,y,z = 5.376 5.376 5.376
region       box block 0 4 0 4 0 4
create_box   1 box
Created orthogonal box = (0 0 0) to (21.504 21.504 21.504)
create_atoms 1 box
Created 256 atoms
mass         1 39.948
pair_style   lj/cut 13.0
pair_coeff   * * 0.2381 3.405
timestep     4
thermo       2000

# equilibration and thermalization

velocity     all create $T 102486 mom yes rot yes dist gaussian
velocity     all create 70 102486 mom yes rot yes dist gaussian
fix          NVT all nvt temp $T $T 10 drag 0.2
fix          NVT all nvt temp 70 $T 10 drag 0.2
fix          NVT all nvt temp 70 70 10 drag 0.2
run          8000
Generated 0 of 0 mixed pair_coeff terms from geometric mixing rule
Step          Temp          E_pair         E_mol          TotEng         Press
0   70            -505.75228      0             -452.54482     -1289.8945
Loop time of 2.37325 on 2 procs for 8000 steps with 256 atoms

unfix NVT

# thermal conductivity calculation

fix NVE all nve
reset_timestep 0
compute      myKE all ke/atom
compute      myPE all pe/atom
compute      myStress all stress/atom NULL virial
compute      flux all heat/flux myKE myPE myStress
variable     Jx equal c_flux[1]/vol
variable     Jy equal c_flux[2]/vol
variable     Jz equal c_flux[3]/vol
fix JJ all ave/correlate 10 200 2000     c_flux[1] c_flux[2] c_flux[3] type auto file J0Jt.dat ave running
variable scale equal 4.83166430676946e-16/1.3806504e-23/70/70/9943.923032064*10*4
variable k11 equal trap(f_JJ[3])*28.7289125255705
variable k22 equal trap(f_JJ[4])*28.7289125255705
variable k33 equal trap(f_JJ[5])*28.7289125255705
thermo_style custom step temp v_Jx v_Jy v_Jz v_k11 v_k22 v_k33
run          100000
Generated 0 of 0 mixed pair_coeff terms from geometric mixing rule
Step          Temp           v_Jx           v_Jy           v_Jz          v_k11          v_k22          v_k33
0   70.428946      3.7547404e-06 -3.4840839e-07  2.8610952e-06  0.020024631    0.00017241772  0.011627044
Averages over the last 26 of 51 rows, steps 50000 to 100000:
Temp v_Jx v_Jy v_Jz v_k11 v_k22 v_k33
69.227 -3.53174e-07 -8.93801e-07 1.4303e-06 0.375143 0.233886 0.266272
Loop time of 32.0224 on 2 procs for 100000 steps with 256 atoms

variable     k equal (v_k11+v_k22+v_k33)/3.0
variable     ndens equal count(all)/vol
average conductivity: 0.287517765794005[W/mK] @ 70 K, 0.0257443666020476 /A\^3
